/*--------------------------------*- C++ -*----------------------------------*\
  =========                 |
  \\      /  F ield         | OpenFOAM: The Open Source CFD Toolbox
   \\    /   O peration     | Website:  www.openfoam.org
    \\  /    A nd           | Version:  User generated
     \\/     M anipulation  |
\*---------------------------------------------------------------------------*/

FoamFile
{
    format      ascii;
    class       dictionary;
    location    "system";
    object      createPatchDict;
}

// * * * * * * * * * * * * * * * * * * * * * * * * * * * * * * * * * * * * * //

pointSync false;  // Synchronisation of coupled points after creation

patches
(
    {
        name slipMin;             // name of new patch
        patchInfo {type slip;}    // type of new patch
        constructFrom patches;    // Options {'patches', 'set'}
        patches (minY);           // name of old patches (can be blockmesh patches)
    }
      
    {
        name slipMax;             // name of new patch
        patchInfo {type slip;}    // type of new patch
        constructFrom patches;    // Options {'patches', 'set'}
        patches (maxY);           // name of old patches (can be blockmesh patches)
    }
);

// ************************************************************************* //
