/*--------------------------------*- C++ -*----------------------------------*\
  =========                 |
  \\      /  F ield         | OpenFOAM: The Open Source CFD Toolbox
   \\    /   O peration     | Website:  www.openfoam.org
    \\  /    A nd           | Version:  User generated
     \\/     M anipulation  |
\*---------------------------------------------------------------------------*/

FoamFile
{
    format      ascii;
    class       dictionary;
    location    "system";
    object      createPatchDict;
}

// * * * * * * * * * * * * * * * * * * * * * * * * * * * * * * * * * * * * * //

pointSync false;  // Synchronisation of coupled points after creation

patches
(
    {
        name rotatingPropeller;       // name of new patch
        patches (rotatingPropeller);  // name of old patches (can be blockmesh patches)
        constructFrom patches;        // Options {'patches', 'set'}
        patchInfo                     // Type of new patch
        {
            type            movingWallVelocity;
            value           uniform (0 0 0);
        }
    }
);

// ************************************************************************* //
