/*--------------------------------*- C++ -*----------------------------------*\
  =========                 |
  \\      /  F ield         | OpenFOAM: The Open Source CFD Toolbox
   \\    /   O peration     | Website:  www.openfoam.org
    \\  /    A nd           | Version:  User generated
     \\/     M anipulation  |
\*---------------------------------------------------------------------------*/

FoamFile
{
    version     2.0;
    format      ascii;
    class       dictionary;
    location    "system";
    object      sampleDict;
}

// * * * * * * * * * * * * * * * * * * * * * * * * * * * * * * * * * * * * * //

// Execute with:
// postProcess -func sampleDict -latestTime

// Types of interpolation
// interpolationScheme
// interpolationScheme cell;                  // Cell-centre value assumed constant over cell
// interpolationScheme cellPoint;             // Linear weighted interpolation using cell values
// interpolationScheme cellPointFace;         // Mixed linear weighted / cell-face interpolation
// interpolationScheme pointMVC;              // Point values only (Mean Value Coordinates)
// interpolationScheme cellPatchConstrained;  // As cell but uses face value on boundary

// Define the basic function attributes
type                sets;                  // Type of function (mandatory)
libs                ("libsampling.so");    // Library to be used (mandatory)
interpolationScheme pointMVC;              // Point values only (Mean Value Coordinates)
setFormat           csv;                   // Output file format
fields              (U p);                 // Fields to be included


// Define base parameters for probe geometries
T  lineUniform;  // Type of point distribution
A  distance;     // Coordinate output. Can be [x, y, z, xyz, distance]
X  0.0;          // Shared x-Plane for vertical probes
Y  -9.9;         // Shared Y-Plane for horizontal probes
Z  0.0;          // Shared Z-Plane for vertical probes
N  1000;         // Number of points across a line probe

// Define the geometry of the line probes
sets
(
    _01_Sample_A_DS      {type $T; axis $A; start ( 25.950 $Y -17.000); end ( 25.950 $Y  -5.833); nPoints $N;}
    _02_Sample_A_US      {type $T; axis $A; start ( 25.950 $Y -17.000); end ( 25.950 $Y  -5.833); nPoints $N;}
    _Unorderd_A_US       {type $T; axis $A; start ( 25.950 $Y -17.000); end ( 25.950 $Y  -5.833); nPoints $N;}
);

// ************************************************************************* //
