/*--------------------------------*- C++ -*----------------------------------*\
  =========                 |
  \\      /  F ield         | OpenFOAM: The Open Source CFD Toolbox
   \\    /   O peration     | Website:  www.openfoam.org
    \\  /    A nd           | Version:  User generated
     \\/     M anipulation  |
\*---------------------------------------------------------------------------*/

FoamFile
{
    format      ascii;
    class       dictionary;
    location    "constant";
    object      dynamicMeshDict;
}

// * * * * * * * * * * * * * * * * * * * * * * * * * * * * * * * * * * * * * //

dynamicFvMesh   dynamicMotionSolverFvMesh;

motionSolverLibs ("libfvMotionSolvers.so");

motionSolver    multiSolidBodyMotion;

multiSolidBodyMotionCoeffs
{
    rotorA // First rotating zone
    {
        solidBodyMotionFunction  rotatingMotion;
        cellZone  rotorACells;  // First cell zone name from snappyHexMesh
        rotatingMotionCoeffs
        {
            origin      (0 0 0);     // Location of the rotation axis
            axis        (0 0 1);     // Axis of revolution (z-axis)
            omega       200 [rpm];   // Revolutions per minute
        }
    }

    rotorB // Second rotating zone
    {
        solidBodyMotionFunction  rotatingMotion;
        cellZone  rotorBCells;  // Second cell zone name from snappyHexMesh
        rotatingMotionCoeffs
        {
            origin      (0 0 0);     // Location of the rotation axis
            axis        (0 0 1);     // Axis of revolution (z-axis)
            omega       200 [rpm];   // Different rotation speed for second zone
        }
    }
}

// ************************************************************************* //
