/*--------------------------------*- C++ -*----------------------------------*\
  =========                 |
  \\      /  F ield         | OpenFOAM: The Open Source CFD Toolbox
   \\    /   O peration     | Website:  www.openfoam.org
    \\  /    A nd           | Version:  User generated
     \\/     M anipulation  |
\*---------------------------------------------------------------------------*/

FoamFile
{
    format      ascii;
    class       dictionary;
    location    "constant";
    object      dynamicMeshDict;
}

// * * * * * * * * * * * * * * * * * * * * * * * * * * * * * * * * * * * * * //

// For multiple rotating regions look into multiSolidBodyMotionSolver
mover  // Must be called mover! Cannot be renamed!
{
    type            motionSolver;
    libs            ("libfvMotionSolvers.so");
    motionSolver    solidBody;
    cellZone        zoneNCC_ACells;  // Match to snappyHexMesh

    solidBodyMotionFunction  rotatingMotion;
    origin      (0 0 0);     // Location of the rotation
    axis        (0 0 1);     // Axis of revoultion
    omega       200 [rpm];   // Revolutions per minute
    // omega    10;          // Radians per second (1 RPM = 0.10472 rad/s)
}

// ************************************************************************* //
