/*--------------------------------*- C++ -*----------------------------------*\
| =========                 |                                                 |
| \\      /  F ield         | OpenFOAM: The Open Source CFD Toolbox           |
|  \\    /   O peration     | Version:  User generated                        |
|   \\  /    A nd           | Web:      www.OpenFOAM.org                      |
|    \\/     M anipulation  |                                                 |
\*---------------------------------------------------------------------------*/

FoamFile
{
    format      ascii;
    class       dictionary;
    location    "constant";
    object      dynamicMeshDict;
}

// * * * * * * * * * * * * * * * * * * * * * * * * * * * * * * * * * * * * * //

dynamicMeshA
{
    type            motionSolver;
    libs            ("libfvMotionSolvers.so");
    motionSolver    solidBody;
    cellZone        cellSelectorCells;  // Match to snappyHexMesh

    solidBodyMotionFunction  rotatingMotion;
    origin    (0 0 0);     // Location of the rotation
    axis      (0 0 1);     // Axis of revoultion
    omega     200 [rpm];   // Revolutions per minute
    // omega  10;          // Radians per second (1 RPM = 0.10472 rad/s)
}

// ************************************************************************* //
