/*--------------------------------*- C++ -*----------------------------------*\
  =========                 |
  \\      /  F ield         | OpenFOAM: The Open Source CFD Toolbox
   \\    /   O peration     | Website:  www.openfoam.org
    \\  /    A nd           | Version:  User generated
     \\/     M anipulation  |
\*---------------------------------------------------------------------------*/

FoamFile
{
    format      ascii;
    class       dictionary;
    location    "constant";
    object      fvModels;
}

// * * * * * * * * * * * * * * * * * * * * * * * * * * * * * * * * * * * * * //

standardCoordinateSystem
{
    type    cartesian;         // Define the type of coordinate system
    origin  (0 0 0);           // Optional to set separate coordinate system
    coordinateRotation
    {
        type    axesRotation;  // Defines the rotation type (axesRotation is commonly used)
        e1      (1 0 0);       // Primary direction (first basis vector)
        e2      (0 1 0);       // Secondary direction (second basis vector)
        // Third axis (e3) is automatically computed as e1 x e2
    }
}

// Insert the required $FV_MODEL_DEFINITIONS$

/* porositySource_example // Definition of a porous (i.e. honeycomb) zone
{
    active  no;
    type    explicitPorositySource;
    explicitPorositySourceCoeffs
    {
        selectionMode  cellZone;         // Options: {cellZone, points, box, etc}
        cellZone       exampleCells;     // CAUTION: Must match mesh definition
        type           DarcyForchheimer; // Options: {DarcyForchheimer, PowerLaw}
        // Very high viscous terms can restrict the flow to a single direction
        d   (7e5 1e10 1e10);  // (x y z) Darcy (viscous) term - proportional to velocity
        f   (  5    0    0);  // (x y z) Forchheimer (inertial) term - prop. to velocity^2
        coordinateSystem {#include "standardCoordinateSystem"}
    }
}*/

// ************************************************************************* //
