/*--------------------------------*- C++ -*----------------------------------*\
| =========                 |                                                 |
| \\      /  F ield         | OpenFOAM: The Open Source CFD Toolbox           |
|  \\    /   O peration     | Version:  Generated with helper tools           |
|   \\  /    A nd           | Web:      www.OpenFOAM.com                      |
|    \\/     M anipulation  |                                                 |
\*---------------------------------------------------------------------------*/

FoamFile
{
    format      ascii;
    class       dictionary;
    location    "constant";
    object      fvModels;
}

// * * * * * * * * * * * * * * * * * * * * * * * * * * * * * * * * * * * * * //

porositySourceA // Definition of a porous (i.e. honeycomb) zone
{
    active      no;
    type        explicitPorositySource;
    explicitPorositySourceCoeffs
    {
        selectionMode       cellZone;         // Options: {cellZone, points, box, cylinder, sphere}
        cellZone            honeycombBCells;  // Cell zone name (must match to snappyHexMesh)
        type                DarcyForchheimer; // Options: {DarcyForchheimer, PowerLaw}
        coordinateSystem    {type    global;} // Define the type of coordinate system
        // Very high viscous terms can restrict the flow to a single direction
        d   (7e5 1e10 1e10);  // (x y z) Darcy (viscous) term - proportional to velocity
        f   (  5    0    0);  // (x y z) Forchheimer (inertial) term - proportional to velocity^2
    }
}

porositySourceB // Definition of a porous (i.e. honeycomb) zone
{
    active      no;
    type        explicitPorositySource;
    explicitPorositySourceCoeffs
    {
        selectionMode       cellZone;         // Options: {cellZone, points, box, cylinder, sphere}
        cellZone            honeycombBCells;  // Cell zone name (must match to snappyHexMesh)
        type                DarcyForchheimer; // Options: {DarcyForchheimer, PowerLaw}
        coordinateSystem    {type    global;} // Define the type of coordinate system
        // Very high viscous terms can restrict the flow to a single direction
        d   (7e5 1e10 1e10);  // (x y z) Darcy (viscous) term - proportional to velocity
        f   (  5    0    0);  // (x y z) Forchheimer (inertial) term - proportional to velocity^2
    }
}


// ************************************************************************* //
