/*--------------------------------*- C++ -*----------------------------------*\
  =========                 |
  \\      /  F ield         | OpenFOAM: The Open Source CFD Toolbox
   \\    /   O peration     | Website:  www.openfoam.org
    \\  /    A nd           | Version:  User generated
     \\/     M anipulation  |
\*---------------------------------------------------------------------------*/

FoamFile
{
    format      ascii;
    class       dictionary;
    location    "constant";
    object      fvModels;
}

// * * * * * * * * * * * * * * * * * * * * * * * * * * * * * * * * * * * * * //

// Insert the required $FV_MODEL_DEFINITIONS$

/* porositySource_example // Definition of a porous (i.e. honeycomb) zone
{
    active  no;
    type    explicitPorositySource;
    explicitPorositySourceCoeffs
    {
        selectionMode  cellZone;         // Options: {cellZone, points, box, etc}
        cellZone       exampleCells;     // CAUTION: Must match mesh definition
        type           DarcyForchheimer; // Options: {DarcyForchheimer, PowerLaw}
        // Very high viscous terms can restrict the flow to a single direction
        d   (7e5 1e10 1e10);  // (x y z) Darcy (viscous) term - proportional to velocity
        f   (  5    0    0);  // (x y z) Forchheimer (inertial) term - prop. to velocity^2
        coordinateSystem {#include "standardCoordinateSystem"}
    }
}*/

// ************************************************************************* //
