/*--------------------------------*- C++ -*----------------------------------*\
| =========                 |                                                 |
| \\      /  F ield         | OpenFOAM: The Open Source CFD Toolbox           |
|  \\    /   O peration     | Version:  User generated                        |
|   \\  /    A nd           | Web:      www.OpenFOAM.com                      |
|    \\/     M anipulation  |                                                 |
\*---------------------------------------------------------------------------*/

FoamFile
{
    format      ascii;
    class       dictionary;
    location    "constant";
    object      MRFProperties;
}

// * * * * * * * * * * * * * * * * * * * * * * * * * * * * * * * * * * * * * //

multipleReferenceZoneA  // Definitions of the multiple reference frame (i.e. propeller) zones
{
    active      no;
    cellZone    cellSelectorCells;   // CAUTION: Ensure this matches your mesh definition

    // CAUTION: remember to update the boundaries in 0/U to "movingWallVelocity", "slip", or "MRFnoSlip"
    nonRotatingPatches (nonRotatingWall);  // Keeps the rotatingWall stationary in the lab frame

    origin    (0 0 0);     // Location of the rotation
    axis      (0 0 1);     // Axis of revoultion
    omega     200 [rpm];   // Revolutions per minute
    // omega  10;          // Radians per second (1 RPM = 0.10472 rad/s)
}

// ************************************************************************* //
