/*--------------------------------*- C++ -*----------------------------------*\
| =========                 |                                                 |
| \\      /  F ield         | OpenFOAM: The Open Source CFD Toolbox           |
|  \\    /   O peration     | Version:  User generated                        |
|   \\  /    A nd           | Web:      www.OpenFOAM.com                      |
|    \\/     M anipulation  |                                                 |
\*---------------------------------------------------------------------------*/

FoamFile
{
    format      ascii;
    class       dictionary;
    location    "constant";
    object      MRFProperties;
}

// * * * * * * * * * * * * * * * * * * * * * * * * * * * * * * * * * * * * * //

// CAUTION: Ensure cellZone matches snappyHexMesh definition and to update the
// relevant boundaries in 0/U to "movingWallVelocity", "slip", or "MRFnoSlip"

// Insert the required $MRF_DEFINITIONS$

/* multipleReferenceZoneExample  // Example of MRF definitions
{
    active    yes;
    cellZone  exampleCells;  // Name of relevant cell zone

    nonRotatingPatches (stationaryExample);  // Keeps patches stationary

    origin    (0 0 1);     // Location of the rotation
    axis      (0 0 1);     // Axis of revoultion
    omega     200 [rpm];   // Revolutions per minute
    // omega  10;          // Radians per second (1 RPM = 0.10472 rad/s)
}*/

// ************************************************************************* //
