/*--------------------------------*- C++ -*----------------------------------*\
  =========                 |
  \\      /  F ield         | OpenFOAM: The Open Source CFD Toolbox
   \\    /   O peration     | Website:  www.openfoam.org
    \\  /    A nd           | Version:  User generated
     \\/     M anipulation  |
\*---------------------------------------------------------------------------*/

FoamFile
{
    format      ascii;
    class       dictionary;
    location    "system";
    object      createBafflesDict;
}

// * * * * * * * * * * * * * * * * * * * * * * * * * * * * * * * * * * * * * //

// Only relevant if your face selection type can pick up a boundary
internalFacesOnly true;  // Only relevant if face selection can detect boundaries

// Insert the required $SHARED_DEFINITIONS$

baffles  // Baffles to create
{
    // Insert the required $BAFFLE_DEFINITIONS$
}

// ************************************************************************* //
