/*--------------------------------*- C++ -*----------------------------------*\
  =========                 |
  \\      /  F ield         | OpenFOAM: The Open Source CFD Toolbox
   \\    /   O peration     | Website:  www.openfoam.org
    \\  /    A nd           | Version:  User generated
     \\/     M anipulation  |
\*---------------------------------------------------------------------------*/

FoamFile
{
    format      ascii;
    class       dictionary;
    location    "system";
    object      createNonConformalCouplesDict;
}

// * * * * * * * * * * * * * * * * * * * * * * * * * * * * * * * * * * * * * //

fields  no;  // Add boundary conditions for the added patch to the fields

nonConformalCouples  // The list of non-conformal couples to be created
{
    // Insert the required $NCC_DEFINITIONS$
    /* ExampleGroup
    {
        patches         (examplePatch examplePatch_slave);
        transform       none;  // Options {none, rotational, & translational}
    }*/
}

// Check the following for more info:
// OpenFOAM-12/etc/caseDicts/annotated/createNonConformalCouplesDict and
// https://cfd.direct/openfoam/free-software/using-non-conformal-coupling/

// ************************************************************************* //
