/*--------------------------------*- C++ -*----------------------------------*\
| =========                 |                                                 |
| \\      /  F ield         | OpenFOAM: The Open Source CFD Toolbox           |
|  \\    /   O peration     | Version: 12                                     |
|   \\  /    A nd           | Web:      www.openfoam.com                      |
|    \\/     M anipulation  |                                                 |
\*---------------------------------------------------------------------------*/

FoamFile
{
    format      ascii;
    class       dictionary;
    location    "system";
    object      createBafflesDict;
}

// * * * * * * * * * * * * * * * * * * * * * * * * * * * * * * * * * * * * * //

// Only relevant if your face selection type can pick up a boundary
internalFacesOnly true;  // Ensures only internal faces are selected

baffles  // Define baffles to be created
{
    porousBaffle  // Name of the baffle
    {
        type        faceZone;      // Select faces & orientation
        zoneName    porousBaffleFaces;  // Face zone name as defined in snappyHexMesh

        patches
        {
            master  // Master patch
            {
                name            porousBaffle0;
                type            cyclic;
                neighbourPatch  porousBaffle1;
                transform       none;  // Option {rotational, none, transormational} 

                patchFields  // Optional override of patch fields
                {
                    p // This section must be copied to 0 when starting simulation 
                    {
                        type            porousBafflePressure;
                        patchType       cyclic;
                        D               20000000;  // Darcy coefficient (porosity = 0.63)
                        I               280;       // Inertial coefficient
                        length          0.003;     // Scaling of pressure drop
                        uniformJump     false;
                        value           uniform 0;
                        jump            uniform 0;
                    }
                }
            }
            slave  // Slave patch
            {
                name            porousBaffle1;
                type            cyclic;
                neighbourPatch  porousBaffle0;
                transform       none;
                patchFields     {${...master.patchFields}}
                // CANNOT USE this copy method if there are mulitple patches

            }
        }
    }
}

// ************************************************************************* //
