/*--------------------------------*- C++ -*----------------------------------*\
| =========                 |                                                 |
| \\      /  F ield         | OpenFOAM: The Open Source CFD Toolbox           |
|  \\    /   O peration     | Version:  User generated                        |
|   \\  /    A nd           | Web:      www.OpenFOAM.com                      |
|    \\/     M anipulation  |                                                 |
\*---------------------------------------------------------------------------*/

FoamFile
{
    format      ascii;
    class       dictionary;
    location    "system";
    object      createBafflesDict;
}

// * * * * * * * * * * * * * * * * * * * * * * * * * * * * * * * * * * * * * //

// Only relevant if your face selection type can pick up a boundary
internalFacesOnly true;  // Only relevant if face selection can detect boundaries

baffles  // Baffles to create
{
    cyclicFacesA  // First baffle to be created
    {
        type        faceZone;      // select faces & orientation
        zoneName    fanBaffleFaces;  // name specified in snappyhexmesh

        patches
        {
            master  // Master side patch
            {
                name            fanBaffle0;
                type            cyclic;
                neighbourPatch  fanBaffle1;

                patchFields  // Optional override of patchfields (default is type "calculated")
                {
                    p  // Jump is in units of pressure(Pa) over density(rho)
                    {
                        type            fanPressureJump;
                        patchType       cyclic;
                        value           uniform 0;
                        jump            uniform 0;
                        jumpTable       constant 1.6;  // Options {constant, polynomial} | was polynomial 1((100 0));
                        reverse         false;
                    }
                }
            }

            slave  // Slave side patch
            {
                name            fanBaffle1;
                type            cyclic;
                neighbourPatch  fanBaffle0;
                patchFields {${...master.patchFields}}
                // CANNOT USE this copy method if there are mulitple patches
            }
        }
    }
    // cyclicFacesB  // Specify additional baffles here
    // {
    // }
}

// ************************************************************************* //
