/*--------------------------------*- C++ -*----------------------------------*\
  =========                 |
  \\      /  F ield         | OpenFOAM: The Open Source CFD Toolbox
   \\    /   O peration     | Website:  www.openfoam.org
    \\  /    A nd           | Version:  User generated
     \\/     M anipulation  |
\*---------------------------------------------------------------------------*/

FoamFile
{
    format      ascii;
    class       dictionary;
    location    "system";
    object      functions;
}

// * * * * * * * * * * * * * * * * * * * * * * * * * * * * * * * * * * * * * //

functions
{
    residuals
    {
        type             residuals;                         // Type of function (mandatory)
        libs             ("libutilityFunctionObjects.so");  // Library to be used (mandatory)
        writeControl     timeStep;                          // What triggers write (optional)
        fields           (".*");                            // Fields to check (optional)
        enabled          false;                             // Make it active (optional)
    }

    CourantNo
    {
        type             CourantNo;                       // Type of function (mandatory)
        libs             ("libfieldFunctionObjects.so");  // Library to be used (mandatory)
        writeControl     writeTime;                       // What triggers write (optional)
        enabled          true;                            // Make it active (optional)
    }

    yPlus
    {
        type             yPlus;                           // Type of function (mandatory)
        libs             ("libfieldFunctionObjects.so");  // Library to be used (mandatory)
        writeControl     writeTime;                       // What triggers write (optional)
        enabled          true;                            // Make it active (optional)
    }

    turbulenceFields
    {
        type             turbulenceFields;                // Type of function (mandatory)
        libs             ("libfieldFunctionObjects.so");  // Library to be used (mandatory)
        writeControl     writeTime;                       // Optional (inherited) entries
        fields           (L I);                           // What triggers write (optional)
        enabled          false;                           // Make it active (optional)
    }

    forces
    {
        type             forces;            // Type of function (mandatory)  
        libs             ("libforces.so");  // Library to be used (mandatory)
        writeControl     writeTime;         // What triggers write (optional)
        log              true;              // Write to log? (optional)
        patches          ("propeller.*");   // Patches to be included
        rho              rhoInf;            // Indicates incompressible
        rhoInf           1;                 // Redundant for incompressible
        CofR             (0 0 0);           // Center of rotation
        pitchAxis        (0 0 1);           // Often set to the rotational axis
        enabled          false;             // Make it active (optional)
    }
}
