/*--------------------------------*- C++ -*----------------------------------*\
| =========                 |                                                 |
| \\      /  F ield         | OpenFOAM: The Open Source CFD Toolbox           |
|  \\    /   O peration     | Version:  User generated                        |
|   \\  /    A nd           | Web:      www.OpenFOAM.org                      |
|    \\/     M anipulation  |                                                 |
\*---------------------------------------------------------------------------*/

FoamFile
{
    format      ascii;
    class       dictionary;
    location    "system";
    object      decomposeParDict;
}

// * * * * * * * * * * * * * * * * * * * * * * * * * * * * * * * * * * * * * //

numberOfSubdomains 2;  // Number of CPU cores

method scotch;         // Decomposition method (simple, hierarchical, scotch, etc.)


constraints            // OPTIONAL decomposition constraints
{
    /* Keep owner and neighbour of PATCHES on the same processor
    // Use for Cyclics, NOT cyclicAMI
    preservePatches
    {
        type    preservePatches;
        patches (cyclic_A0 cyclic_A1 cyclic_B0 cyclic_B1);
        enabled false;
    }*/

    /* Keep all cells of FACE SET on the same processor
    // Use for cyclicAMI and set to -1 for good load balancing
    singleProcessorFaceSets
    {
        type    singleProcessorFaceSets;
        singleProcessorFaceSets ((f1 -1));
        enabled false;
    }*/

    /* Keep owner and neighbour of BAFFLES on the same processor
    // Use for porous wire screens
    preserveBaffles
    {
        type    preserveBaffles;
        enabled false;
    }*/

    /* Keep onwer and neighbour of FACE ZONES on the same processor
    // Use for face zones
    preserveFaceZones
    {
        type    preserveFaceZones;
        zones   (".*");
        enabled false;
    }*/
}

// ************************************************************************* //
