/*--------------------------------*- C++ -*----------------------------------*\
| =========                 |                                                 |
| \\      /  F ield         | OpenFOAM: The Open Source CFD Toolbox           |
|  \\    /   O peration     | Version:  Generated with helper tools           |
|   \\  /    A nd           | Web:      www.OpenFOAM.com                      |
|    \\/     M anipulation  |                                                 |
\*---------------------------------------------------------------------------*/

FoamFile
{
    version     2.0;
    format      ascii;
    class       dictionary;
    object      snappyHexMeshDict;
}

// * * * * * * * * * * * * * * * * * * * * * * * * * * * * * * * * * * * * * //

// Decide which of the steps to run
// ~~~~~~~~~~~~~~~~~~~~~~~~~~~~~~~~
castellatedMesh         true;   // Create basic mesh
snap                    true;   // Create mesh snapped to surfaces
addLayers               true;   // Create mesh layers on specified surfaces


// Specify optional meshing OPTIONALS
// ~~~~~~~~~~~~~~~~~~~~~~~~~~~~~~~~~~
singleRegionName        true;   // def true  | single region surfaces named based on surface
mergePatchFaces         true;   // def true  | enables merging of coplaner cell faces
mergeAcrossPatches      false;  // def false | merging of coplanar faces on different patches
keepPatches             false;  // def false | enables removing zero sized patches


// Geometry definition (loaded from stl files)
// ~~~~~~~~~~~~~~~~~~~~~~~~~~~~~~~~~~~~~~~~~~~

geometry
{
