/*--------------------------------*- C++ -*----------------------------------*\
| =========                 |                                                 |
| \\      /  F ield         | OpenFOAM: The Open Source CFD Toolbox           |
|  \\    /   O peration     | Version:  Generated with helper tools           |
|   \\  /    A nd           | Web:      www.OpenFOAM.com                      |
|    \\/     M anipulation  |                                                 |
\*---------------------------------------------------------------------------*/

FoamFile
{
    format      ascii;
    class       dictionary;
    location    "constant";
    object      fvOptions;
}

// * * * * * * * * * * * * * * * * * * * * * * * * * * * * * * * * * * * * * //

porosityA
{
    type          explicitPorositySource;
    active        yes;

    explicitPorositySourceCoeffs
    {
        selectionMode   cellZone; // Options: {cellZone, points, box, cylinder, sphere}
        cellZone        honeycombCells; // Cell zone name (must match to snappyHexMesh)
        type            DarcyForchheimer; // Options: {DarcyForchheimer, PowerLaw}

        // Set the viscous terms very high to only allow flow in one direction
        d   (7e5 1e10 1e10);  // (x y z) Darcy (viscous) term - proportional to velocity
        f   (  5    0    0);  // (x y z) Forchheimer (inertial) term - proportional to velocity^2

        coordinateSystem
        {
            origin  (0 0 0);  // Optional to set separate coordinate system

            rotation
            {
                type    axesRotation;
                e1  (1 0 0); // Primary direction (first basis vector)
                e2  (0 1 0); // Secondary direction (second basis vector)
                // Third axis (e3) is automatically computed (e1 x e2)
            }
        }
    }
}

// ************************************************************************* //
