/*--------------------------------*- C++ -*----------------------------------*\
| =========                 |                                                 |
| \\      /  F ield         | OpenFOAM: The Open Source CFD Toolbox           |
|  \\    /   O peration     | Version:  Generated with helper tools           |
|   \\  /    A nd           | Web:      www.OpenFOAM.com                      |
|    \\/     M anipulation  |                                                 |
\*---------------------------------------------------------------------------*/

FoamFile
{
    format      ascii;
    class       dictionary;
    location    "constant";
    object      MRFZones;
}

// * * * * * * * * * * * * * * * * * * * * * * * * * * * * * * * * * * * * * //

// Definitions of the MRF zones

MRF1
{
    cellZone        rotatingZone;  // Ensure this matches your mesh definition
    active          yes;

    nonRotatingPatches (rotatingWall);  // Keeps the rotatingWall stationary in the lab frame

    origin          (0 0 0);  // Adjust to match your setup
    axis            (0 0 1);  // Adjust based on rotation axis
    omega           100;  // Rotation speed in rad/s (adjust as needed)
}