/*--------------------------------*- C++ -*----------------------------------*\
  =========                 |
  \\      /  F ield         | OpenFOAM: The Open Source CFD Toolbox
   \\    /   O peration     | Website:  www.openfoam.org
    \\  /    A nd           | Version:  User generated
     \\/     M anipulation  |
\*---------------------------------------------------------------------------*/

FoamFile
{
    format      ascii;
    class       dictionary;
    location    "constant";
    object      dynamicMeshDict;
}
// * * * * * * * * * * * * * * * * * * * * * * * * * * * * * * * * * * * * * //

topoChanger
{
    type            refiner;

    libs            ("libfvMeshTopoChangers.so");

    mover           none;

    // How often to refine the mesh
    refineInterval  1;

    // Field to be refinement on
    field           alpha.water;

    // Refine field in between lower and upper levels
    lowerRefineLevel 0.001;
    upperRefineLevel 0.999;

    // Have slower than 2:1 refinement
    nBufferLayers   1;

    // Refine cells only up to maxRefinement levels
    maxRefinement   2;

    // Stop refinement if maxCells reached
    maxCells        200000;

    // Write the refinement level as a volScalarField
    dumpLevel       true;
}


// ************************************************************************* //
