/*--------------------------------*- C++ -*----------------------------------*\
  =========                 |
  \\      /  F ield         | OpenFOAM: The Open Source CFD Toolbox
   \\    /   O peration     | Website:  www.openfoam.org
    \\  /    A nd           | Version:  User generated
     \\/     M anipulation  |
\*---------------------------------------------------------------------------*/

FoamFile
{
    format      ascii;
    class       dictionary;
    location    "constant";
    object      dynamicMeshDict;
}

// * * * * * * * * * * * * * * * * * * * * * * * * * * * * * * * * * * * * * //

// For single-body motion use 'motionSolver multiSolidBodyMotionSolver' instead
mover  // Must be called mover! Cannot be renamed!
{
    type            motionSolver;
    libs            ("libfvMotionSolvers.so");
    motionSolver    solidBody;
    cellZone        $CELL_ZONE_NAME$;  // CAUTION: Must match mesh definition

    solidBodyMotionFunction  rotatingMotion;
    origin      (0 0 0);     // Location of the rotation
    axis        (0 0 1);     // Axis of revoultion
    omega       200 [rpm];   // Revolutions per minute
    // omega    10;          // Radians per second (1 RPM = 0.10472 rad/s)
}

/* ------------------------- Time Varying Rotation ------------------------- //
omega       table
(
    (0      0)     // 00.0 rad / s = 000 RPM at 0 seconds
    (4      20.9)  // 20.9 rad / s = 200 RPM at 4 seconds
    (100    20.9)  // 20.9 rad / s = 200 RPM at 100 seconds
);
// ------------------------------------------------------------------------- */

// ************************************************************************* //
