/*--------------------------------*- C++ -*----------------------------------*\
  =========                 |
  \\      /  F ield         | OpenFOAM: The Open Source CFD Toolbox
   \\    /   O peration     | Website:  www.openfoam.org
    \\  /    A nd           | Version:  User generated
     \\/     M anipulation  |
\*---------------------------------------------------------------------------*/

FoamFile
{
    format      ascii;
    class       dictionary;
    location    "constant";
    object      fvModels;
}

// * * * * * * * * * * * * * * * * * * * * * * * * * * * * * * * * * * * * * //

// Insert the required $FV_MODEL_DEFINITIONS$

/* porositySource_example // Definition of a porous (i.e. honeycomb) zone
{
    active  no;
    type    explicitPorositySource;
    explicitPorositySourceCoeffs
    {
        selectionMode  cellZone;         // Options: {cellZone, points, box, etc}
        cellZone       exampleCells;     // CAUTION: Must match mesh definition
        type           DarcyForchheimer; // Options: {DarcyForchheimer, PowerLaw}
        // CAUTION: Forchheimer values from literature should be scaled for OpenFOAM
        // EXAMPLE: F_openfoam = 2 x F_literature / density
        // Negative D terms are multiplied by -1 & 3e21 to create directional blockage
        d   (3.0e6 -1e4 -1e4);  // (x y z) Darcy (viscous) term - proportional to velocity
        f   (5.3e0    0    0);  // (x y z) Forchheimer (inertial) term - prop. to velocity^2
        coordinateSystem {#include "standardCoordinateSystem"}
    }
}*/

// ************************************************************************* //
