/*--------------------------------*- C++ -*----------------------------------*\
  =========                 |
  \\      /  F ield         | OpenFOAM: The Open Source CFD Toolbox
   \\    /   O peration     | Website:  www.openfoam.org
    \\  /    A nd           | Version:  User generated
     \\/     M anipulation  |
\*---------------------------------------------------------------------------*/

FoamFile
{
    format      ascii;
    class       dictionary;
    location    "system";        // Update this
    object      fvModels;   // Update this
}

// * * * * * * * * * * * * * * * * * * * * * * * * * * * * * * * * * * * * * //

// Used if the passive scalar is activated in the controlDict and/or functions
scalarConstraint
{
    type            semiImplicitSource;
    selectionMode   cellZone;
    cellZone        zoneNCZ;

    sources  // Handle the specific vs absolute value
    {
        S  // Value 2 starting at time t = 0
        {
            explicit 2;
            implicit 0;
        }
    }
}

// ************************************************************************* //
